    94
 Generated by Multiwfn
C       1.24183000     -2.25074200      1.62352200
C       2.58438000     -2.20551400      1.13520700
C       2.75954400     -1.44928200     -0.00689000
C       0.32425600     -1.53974800      0.84663000
C      -0.80134700     -0.23523100     -0.80321600
C      -1.73516000     -0.69977900      0.07691300
C      -1.05464300     -1.47830800      1.09212900
H       0.97327900     -2.80968000      2.52600400
H      -1.56129700     -1.95232600      1.94287700
C       4.07650400     -1.28216400     -0.65355400
O       4.90904800     -0.45081700     -0.35966200
O       4.26007900     -2.14011200     -1.66683200
C       3.63349100     -2.94330300      1.86816000
O       3.48645300     -3.43923100      2.96722900
O       4.79175100     -3.03555600      1.20056800
P      -3.51012600     -0.50035300      0.03695000
C       5.85632300     -3.68774500      1.86337500
H       6.11198500     -3.17862400      2.80552600
H       5.60411700     -4.73540600      2.08892200
H       6.71423700     -3.65281000      1.18010600
C       5.43496800     -1.95489700     -2.42496700
H       5.44284200     -0.96308700     -2.90383900
H       6.33944200     -2.05202100     -1.80374400
H       5.43507300     -2.73430900     -3.19844800
Os      1.04379700     -0.54746700     -0.85645500
C      -3.90680700      0.54678700     -1.38176000
C      -4.94821300      0.19177800     -2.24752700
C      -3.21586800      1.75153800     -1.57576300
C      -5.29850600      1.03531400     -3.30012300
H      -5.48738200     -0.74704500     -2.10054000
C      -3.57911100      2.59546500     -2.62614800
H      -2.39874800      2.03146800     -0.90719700
C      -4.61641100      2.23916900     -3.48718900
H      -6.10936800      0.75140800     -3.97544000
H      -3.04492300      3.53723800     -2.76848900
H      -4.89560200      2.90346700     -4.30918200
C      -4.15555400     -2.17195500     -0.30432800
C      -5.44771700     -2.52902400      0.09937200
C      -3.38362200     -3.06929900     -1.05411500
C      -5.96316900     -3.77921900     -0.23943900
H      -6.04725600     -1.82175500      0.67816300
C      -3.90876700     -4.31442400     -1.39850000
H      -2.37046400     -2.79567700     -1.36600700
C      -5.19482700     -4.67078300     -0.99093500
H      -6.96963200     -4.05800500      0.08290200
H      -3.30607400     -5.01184600     -1.98606100
H      -5.60125300     -5.64959700     -1.25905200
C      -4.28852000      0.13676400      1.46592400
C      -4.69823100      1.51219900      1.57740700
C      -4.35119800     -0.66734700      2.66675200
C      -5.15939800      2.02002700      2.77242200
H      -4.65579700      2.16069400      0.69810800
C      -4.81612000     -0.13040600      3.85133600
H      -4.03384800     -1.71347900      2.63555300
C      -5.22939900      1.21781100      3.94444400
H      -5.47875800      3.06655500      2.81279200
H      -4.85865000     -0.77117000      4.73862000
H      -5.58710400      1.63294000      4.88905900
Cl      2.25433200      0.29203600     -2.90234800
P       1.25830600      1.43965100      0.27488500
C       2.89920200      2.22247100      0.58749000
C       3.21236900      2.90215300      1.77204900
C       3.80946400      2.24687100     -0.47610300
C       4.42322400      3.58466200      1.89384700
H       2.50895000      2.90909100      2.60720600
C       5.01060400      2.94291100     -0.35622900
H       3.56284400      1.71304300     -1.39881700
C       5.32397000      3.60962700      0.82855400
H       4.65846000      4.10612800      2.82560800
H       5.71364500      2.95476000     -1.19365500
H       6.27006800      4.14958400      0.92305700
C       0.46489100      2.91467000     -0.50787800
C       0.22918800      4.08184700      0.23318500
C       0.19689300      2.91392000     -1.88053400
C      -0.29401700      5.21683300     -0.38277300
H       0.45623100      4.10789000      1.30208300
C      -0.30654700      4.05920200     -2.50001600
H       0.42381300      2.01839300     -2.46422400
C      -0.56322000      5.20822700     -1.75314600
H      -0.48498300      6.11591900      0.20910500
H      -0.50232700      4.04914100     -3.57549100
H      -0.96684900      6.10100200     -2.23822200
C       0.48027400      1.36642300      1.93132900
C      -0.84830600      1.75649500      2.13394600
C       1.16870200      0.73089200      2.97495000
C      -1.47484300      1.52572800      3.35917200
H      -1.41092300      2.23059100      1.32720400
C       0.54612500      0.50924000      4.20106400
H       2.19694500      0.39341600      2.82302400
C      -0.77996300      0.90211500      4.39453700
H      -2.51799300      1.82262000      3.49573800
H       1.09585700      0.01259900      5.00499400
H      -1.27441200      0.71780400      5.35206900
Cl      0.62717600     -2.65009100     -2.11372200
