    94
 Generated by Multiwfn
C       1.22315800     -2.79250000      1.11580300
C       2.50681900     -2.56770200      0.62942800
C       2.64136700     -1.44958900     -0.25442300
C       0.27311600     -1.89050700      0.58561500
C      -1.71010200     -0.85244700      0.09129300
C      -1.09795800     -1.88231100      0.84963600
H       0.99532300     -3.59264300      1.82829500
H      -1.61731000     -2.51762100      1.57447600
C       4.00019600     -0.83264300     -0.21670700
O       4.55529200     -0.40518900      0.77820200
O       4.59222000     -0.80072700     -1.41307600
C       3.63272200     -3.39645000      1.12328700
O       3.62615700     -4.05143400      2.14261100
O       4.68135900     -3.37112800      0.29144300
P      -3.47500200     -0.41899600      0.11581400
C       5.84752100     -4.05155200      0.71763400
H       6.24891600     -3.60300300      1.63956700
H       5.64011000     -5.11607800      0.90254200
H       6.57974800     -3.95031200     -0.09268400
C       5.93158500     -0.34340200     -1.43484800
H       6.01584300      0.66920200     -1.01553000
H       6.58425900     -1.01885100     -0.85911100
H       6.24171700     -0.33891600     -2.48745600
Os      0.90101000     -0.68953000     -0.90780400
C      -3.69313700      1.03789000      1.15098500
C      -3.56716900      2.31217700      0.58370300
C      -3.81853900      0.89124200      2.53959600
C      -3.60012100      3.43690200      1.40572000
H      -3.44123400      2.42948600     -0.49440900
C      -3.85412500      2.02240100      3.35051800
H      -3.87808100     -0.10180700      2.99080700
C      -3.74649100      3.29398100      2.78509400
H      -3.50655000      4.42989600      0.96190800
H      -3.96022400      1.90841000      4.43186800
H      -3.77245200      4.17930000      3.42524200
C      -3.96676800     -0.04535900     -1.58224100
C      -5.16891900      0.63756000     -1.80877100
C      -3.20354100     -0.51610400     -2.65910300
C      -5.59352900      0.87287100     -3.11438100
H      -5.77344700      0.99156200     -0.96931800
C      -3.64184900     -0.27791900     -3.96044000
H      -2.27115600     -1.06186300     -2.48657200
C      -4.82838500      0.41908600     -4.18975500
H      -6.52637900      1.41346200     -3.29143600
H      -3.04481400     -0.63980500     -4.80108900
H      -5.16179700      0.60693100     -5.21358600
C      -4.53403800     -1.76925400      0.67753000
C      -5.71797700     -1.53626100      1.38829800
C      -4.19009700     -3.07193800      0.28615200
C      -6.53865300     -2.60888100      1.73071800
H      -6.00437100     -0.52152300      1.67252400
C      -5.01705600     -4.13683000      0.63496600
H      -3.28046900     -3.25331900     -0.29186300
C      -6.18697700     -3.90704700      1.36002600
H      -7.46035100     -2.42669500      2.28843200
H      -4.74547300     -5.15190500      0.33576500
H      -6.83247900     -4.74567800      1.63288400
Cl      1.33330000      0.51817500     -3.12785000
P       1.32419100      1.26063900      0.25576100
C       2.93965900      2.13857500      0.14479000
C       3.54352700      2.76273400      1.24204000
C       3.50816800      2.28133100     -1.12701100
C       4.71029500      3.50705200      1.07210500
H       3.10714300      2.67066400      2.23873400
C       4.67078500      3.03351900     -1.29318400
H       3.02248500      1.79978200     -1.98301200
C       5.27810100      3.64419900     -0.19517600
H       5.17735300      3.98522100      1.93733100
H       5.10789000      3.13951900     -2.28988300
H       6.19204500      4.22960100     -0.32653200
C       0.25871800      2.72606200     -0.09961400
C       0.19940300      3.78631000      0.81597400
C      -0.38346000      2.85440100     -1.33555200
C      -0.50651100      4.94791700      0.50857900
H       0.71240700      3.71122300      1.77817300
C      -1.08536100      4.02101100     -1.64231100
H      -0.29536500      2.04379800     -2.06119200
C      -1.15304700      5.06755500     -0.72288600
H      -0.54970400      5.76401200      1.23461700
H      -1.58272300      4.11142000     -2.61196200
H      -1.70623800      5.97883900     -0.96565900
C       1.06897500      0.95456800      2.04399900
C      -0.17953900      1.16982400      2.64107200
C       2.07647200      0.30782600      2.77637500
C      -0.41009300      0.76058700      3.95507900
H      -0.98335200      1.65073700      2.07912900
C       1.84096800     -0.09463400      4.08933100
H       3.03931400      0.09388000      2.30214500
C       0.59848100      0.13187200      4.68422400
H      -1.38890400      0.93473100      4.40822400
H       2.63383100     -0.59792500      4.64931900
H       0.41469700     -0.18718400      5.71353400
Cl      0.14829200     -2.56309600     -2.29826700
N      -1.01594700     -0.04601700     -0.65332200
